**
** PARTS
**
*Part, name=Frame
*Node
      1,         -12.,          -6.,          6.5
      2,         -12.,           6.,          6.5
      3,         -12.,           6.,         -6.5
      4,         -24.,           6.,         -6.5
      5,         -24.,          -6.,         -6.5
      6,         -12.,          -6.,         -6.5
      7,         -24.,          -6.,          6.5
      8,         -24.,           6.,          6.5
      9,          12.,           6.,          6.5
     10,          12.,          -6.,          6.5
     11,          12.,          -6.,         -6.5
     12,          12.,           6.,         -6.5
     13,         -12.,          -3.,          6.5
     14,         -12.,           0.,          6.5
     15,         -12.,           3.,          6.5
     16,         -12.,           6.,         3.25
     17,         -12.,           6.,           0.
     18,         -12.,           6.,        -3.25
     19,         -15.,           6.,         -6.5
     20,         -18.,           6.,         -6.5
** ... 68 like lines cut
*Element, type=B33
1,  1, 13
2, 13, 14
3, 14, 15
4, 15,  2
5,  2, 16
6, 16, 17
7, 17, 18
8, 18,  3
 9,  3, 19
10, 19, 20
11, 20, 21
12, 21,  4
13,  4, 22
14, 22, 23
15, 23, 24
16, 24,  5
17,  5, 25
18, 25, 26
19, 26, 27
20, 27,  6
** ... 76 like lines cut
*Nset, nset=FB_0_FB_1
  9, 12, 59, 60, 61
*Elset, elset=FB_0_FB_1, generate
 61,  64,   1
*Nset, nset=FB_1_FB_2
 11, 12, 56, 57, 58
*Elset, elset=FB_1_FB_2, generate
 57,  60,   1
*Nset, nset=FB_2_FB_3
 10, 11, 53, 54, 55
*Elset, elset=FB_2_FB_3, generate
 53,  56,   1
*Nset, nset=FB_3_FB_0
  9, 10, 50, 51, 52
*Elset, elset=FB_3_FB_0, generate
 49,  52,   1
*Nset, nset=FB
  9, 10, 50, 51, 52
*Elset, elset=FB, generate
 49,  52,   1
*Nset, nset=FB_0_MB_0
  2,  9, 43, 44, 45, 46, 47, 48, 49
*Elset, elset=FB_0_MB_0, generate
 41,  48,   1
*Nset, nset=FB0
 9,
*Nset, nset=FB_1_MB_1
  3, 12, 62, 63, 64, 65, 66, 67, 68
*Elset, elset=FB_1_MB_1, generate
 65,  72,   1
*Nset, nset=FB1
 12,
*Nset, nset=FB_2_MB_2
  6, 11, 72, 73, 74, 75, 76, 77, 78
*Elset, elset=FB_2_MB_2, generate
 77,  84,   1
*Nset, nset=FB2
 11,
*Nset, nset=FB_3_MB_3
  1, 10, 82, 83, 84, 85, 86, 87, 88
*Elset, elset=FB_3_MB_3, generate
 89,  96,   1
*Nset, nset=FB3
 10,
*Nset, nset=MB_0_RB_0
  2,  8, 40, 41, 42
*Elset, elset=MB_0_RB_0, generate
 37,  40,   1
*Nset, nset=MB_1_RB_1
  3,  4, 19, 20, 21
*Elset, elset=MB_1_RB_1, generate
  9,  12,   1
*Nset, nset=RB_2_MB_2
  5,  6, 25, 26, 27
*Elset, elset=RB_2_MB_2, generate
 17,  20,   1
*Nset, nset=RB_3_MB_3
  1,  7, 31, 32, 33
*Elset, elset=RB_3_MB_3, generate
 25,  28,   1
*Nset, nset=CONNECT
  1,  7, 31, 32, 33
*Elset, elset=CONNECT, generate
 25,  28,   1
*Nset, nset=RB_0_RB_1
  4,  8, 37, 38, 39
*Elset, elset=RB_0_RB_1, generate
 33,  36,   1
*Nset, nset=RB_1_RB_2
  4,  5, 22, 23, 24
*Elset, elset=RB_1_RB_2, generate
 13,  16,   1
*Nset, nset=RB1
 4,
*Nset, nset=RB_2_RB_3
  5,  7, 69, 70, 71
*Elset, elset=RB_2_RB_3, generate
 73,  76,   1
*Nset, nset=RB2
 5,
*Nset, nset=RB_3_RB_0
  7,  8, 34, 35, 36
*Elset, elset=RB_3_RB_0, generate
 29,  32,   1
*Nset, nset=RB3
 7,
*Nset, nset=RB0
 8,
*Nset, nset=RB
  7,  8, 34, 35, 36
*Elset, elset=RB, generate
 29,  32,   1
*Nset, nset=MB_0_MB_1
  2,  3, 16, 17, 18
*Elset, elset=MB_0_MB_1, generate
 5,  8,  1
*Nset, nset=MB_1_MB_2
  3,  6, 28, 29, 30
*Elset, elset=MB_1_MB_2, generate
 21,  24,   1
*Nset, nset=MB1
 3,
*Nset, nset=MB_2_MB_3
  1,  6, 79, 80, 81
*Elset, elset=MB_2_MB_3, generate
 85,  88,   1
*Nset, nset=MB2
 6,
*Nset, nset=MB_3_MB_0
  1,  2, 13, 14, 15
*Elset, elset=MB_3_MB_0, generate
 1,  4,  1
*Nset, nset=MB3
 1,
*Nset, nset=MB0
 2,
*Nset, nset=MB
  1,  2, 13, 14, 15
*Elset, elset=MB, generate
 1,  4,  1
*Nset, nset=All_Tubes, generate
  1,  88,   1
*Elset, elset=All_Tubes, generate
  1,  96,   1
*Nset, nset=FrameTop
  3,  6, 11, 12, 28, 29, 30, 56, 57, 58, 62, 63, 64, 65, 66, 67
 68, 72, 73, 74, 75, 76, 77, 78
*Elset, elset=FrameTop
 21, 22, 23, 24, 57, 58, 59, 60, 65, 66, 67, 68, 69, 70, 71, 72
 77, 78, 79, 80, 81, 82, 83, 84
*Nset, nset=FrameBot
  1,  2,  9, 10, 13, 14, 15, 43, 44, 45, 46, 47, 48, 49, 50, 51
 52, 82, 83, 84, 85, 86, 87, 88
*Elset, elset=FrameBot
  1,  2,  3,  4, 41, 42, 43, 44, 45, 46, 47, 48, 49, 50, 51, 52
 89, 90, 91, 92, 93, 94, 95, 96
*Nset, nset=test
  1,  2,  5,  7,  8, 31, 32, 33, 34, 35, 36, 40, 41, 42, 69, 70
 71,
*Elset, elset=test
 25, 26, 27, 28, 29, 30, 31, 32, 37, 38, 39, 40, 73, 74, 75, 76
*Nset, nset=Set-41
  1,  2,  3,  5,  6,  9, 10, 11, 12, 25, 26, 27, 28, 29, 30, 43
 44, 45, 46, 47, 48, 49, 50, 51, 52, 53, 54, 55, 56, 57, 58, 59
 60, 61, 62, 63, 64, 65, 66, 67, 68, 72, 73, 74, 75, 76, 77, 78
 79, 80, 81, 82, 83, 84, 85, 86, 87, 88
*Elset, elset=Set-41
 17, 18, 19, 20, 21, 22, 23, 24, 41, 42, 43, 44, 45, 46, 47, 48
 49, 50, 51, 52, 53, 54, 55, 56, 57, 58, 59, 60, 61, 62, 63, 64
 65, 66, 67, 68, 69, 70, 71, 72, 77, 78, 79, 80, 81, 82, 83, 84
 85, 86, 87, 88, 89, 90, 91, 92, 93, 94, 95, 96
** Section: beam_625_035  Profile: tube_625_035
*Beam Section, elset=MB_3_MB_0, material=STEEL_4130_US, temperature=GRADIENTS, section=PIPE
0.3125, 0.035
1.,0.,0.
** Section: beam_625_035  Profile: tube_625_035
*Beam Section, elset=MB_0_MB_1, material=STEEL_4130_US, temperature=GRADIENTS, section=PIPE
0.3125, 0.035
1.,0.,0.
** Section: beam_625_035  Profile: tube_625_035
*Beam Section, elset=MB_1_RB_1, material=STEEL_4130_US, temperature=GRADIENTS, section=PIPE
0.3125, 0.035
0.,1.,0.
** Section: beam_625_035  Profile: tube_625_035
*Beam Section, elset=RB_1_RB_2, material=STEEL_4130_US, temperature=GRADIENTS, section=PIPE
0.3125, 0.035
1.,0.,0.
** Section: beam_625_035  Profile: tube_625_035
*Beam Section, elset=RB_2_MB_2, material=STEEL_4130_US, temperature=GRADIENTS, section=PIPE
0.3125, 0.035
0.,1.,0.
** Section: beam_625_035  Profile: tube_625_035
*Beam Section, elset=MB_1_MB_2, material=STEEL_4130_US, temperature=GRADIENTS, section=PIPE
0.3125, 0.035
1.,0.,0.
** Section: beam_625_035  Profile: tube_625_035
*Beam Section, elset=RB_3_MB_3, material=STEEL_4130_US, temperature=GRADIENTS, section=PIPE
0.3125, 0.035
0.,1.,0.
** Section: beam_625_035  Profile: tube_625_035
*Beam Section, elset=RB_3_RB_0, material=STEEL_4130_US, temperature=GRADIENTS, section=PIPE
0.3125, 0.035
1.,0.,0.
** Section: beam_625_035  Profile: tube_625_035
*Beam Section, elset=RB_0_RB_1, material=STEEL_4130_US, temperature=GRADIENTS, section=PIPE
0.3125, 0.035
1.,0.,0.
** Section: beam_625_035  Profile: tube_625_035
*Beam Section, elset=MB_0_RB_0, material=STEEL_4130_US, temperature=GRADIENTS, section=PIPE
0.3125, 0.035
0.,1.,0.
** Section: beam_625_035  Profile: tube_625_035
*Beam Section, elset=FB_0_MB_0, material=STEEL_4130_US, temperature=GRADIENTS, section=PIPE
0.3125, 0.035
0.,1.,0.
** Section: beam_625_035  Profile: tube_625_035
*Beam Section, elset=FB_3_FB_0, material=STEEL_4130_US, temperature=GRADIENTS, section=PIPE
0.3125, 0.035
1.,0.,0.
** Section: beam_625_035  Profile: tube_625_035
*Beam Section, elset=FB_2_FB_3, material=STEEL_4130_US, temperature=GRADIENTS, section=PIPE
0.3125, 0.035
1.,0.,0.
** Section: beam_625_035  Profile: tube_625_035
*Beam Section, elset=FB_1_FB_2, material=STEEL_4130_US, temperature=GRADIENTS, section=PIPE
0.3125, 0.035
1.,0.,0.
** Section: beam_625_035  Profile: tube_625_035
*Beam Section, elset=FB_0_FB_1, material=STEEL_4130_US, temperature=GRADIENTS, section=PIPE
0.3125, 0.035
1.,0.,0.
** Section: beam_625_035  Profile: tube_625_035
*Beam Section, elset=FB_1_MB_1, material=STEEL_4130_US, temperature=GRADIENTS, section=PIPE
0.3125, 0.035
0.,1.,0.
** Section: beam_625_035  Profile: tube_625_035
*Beam Section, elset=RB_2_RB_3, material=STEEL_4130_US, temperature=GRADIENTS, section=PIPE
0.3125, 0.035
1.,0.,0.
** Section: beam_625_035  Profile: tube_625_035
*Beam Section, elset=FB_2_MB_2, material=STEEL_4130_US, temperature=GRADIENTS, section=PIPE
0.3125, 0.035
0.,1.,0.
** Section: beam_625_035  Profile: tube_625_035
*Beam Section, elset=MB_2_MB_3, material=STEEL_4130_US, temperature=GRADIENTS, section=PIPE
0.3125, 0.035
1.,0.,0.
** Section: beam_625_035  Profile: tube_625_035
*Beam Section, elset=FB_3_MB_3, material=STEEL_4130_US, temperature=GRADIENTS, section=PIPE
0.3125, 0.035
0.,1.,0.
*End Part
**
*Part, name=Panel-Part1
*Node
      1,         -12.,           6.,         -6.5
      2,         -12.,           4.,         -6.5
      3,         -12.,           2.,         -6.5
      4,         -12.,           0.,         -6.5
      5,         -12.,          -2.,         -6.5
      6,         -12.,          -4.,         -6.5
      7,         -12.,          -6.,         -6.5
      8,          -8.,           6.,         -6.5
      9,          -8.,           4.,         -6.5
     10,          -8.,           2.,         -6.5
     11,          -8.,           0.,         -6.5
     12,          -8.,          -2.,         -6.5
     13,          -8.,          -4.,         -6.5
     14,          -8.,          -6.,         -6.5
     15,          -4.,           6.,         -6.5
     16,          -4.,           4.,         -6.5
     17,          -4.,           2.,         -6.5
     18,          -4.,           0.,         -6.5
     19,          -4.,          -2.,         -6.5
     20,          -4.,          -4.,         -6.5
** ... 113 like lines cut
*Element, type=S8R
 1,   1,   2,   9,   8,  50,  51,  52,  53
 2,   2,   3,  10,   9,  54,  55,  56,  51
 3,   3,   4,  11,  10,  57,  58,  59,  55
 4,   4,   5,  12,  11,  60,  61,  62,  58
 5,   5,   6,  13,  12,  63,  64,  65,  61
 6,   6,   7,  14,  13,  66,  67,  68,  64
 7,   8,   9,  16,  15,  52,  69,  70,  71
 8,   9,  10,  17,  16,  56,  72,  73,  69
 9,  10,  11,  18,  17,  59,  74,  75,  72
10,  11,  12,  19,  18,  62,  76,  77,  74
11,  12,  13,  20,  19,  65,  78,  79,  76
12,  13,  14,  21,  20,  68,  80,  81,  78
13,  15,  16,  23,  22,  70,  82,  83,  84
14,  16,  17,  24,  23,  73,  85,  86,  82
15,  17,  18,  25,  24,  75,  87,  88,  85
16,  18,  19,  26,  25,  77,  89,  90,  87
17,  19,  20,  27,  26,  79,  91,  92,  89
18,  20,  21,  28,  27,  81,  93,  94,  91
19,  22,  23,  30,  29,  83,  95,  96,  97
20,  23,  24,  31,  30,  86,  98,  99,  95
** ... 16 like lines cut
*Nset, nset=panelFace, generate
   1,  133,    1
*Elset, elset=panelFace, generate
  1,  36,   1
*Nset, nset=panelEdges
   1,   2,   3,   4,   5,   6,   7,   8,  14,  15,  21,  22,  28,  29,  35,  36
  42,  43,  44,  45,  46,  47,  48,  49,  50,  53,  54,  57,  60,  63,  66,  67
  71,  80,  84,  93,  97, 106, 110, 119, 122, 123, 125, 127, 129, 131, 132, 133
*Elset, elset=panelEdges
  1,  2,  3,  4,  5,  6,  7, 12, 13, 18, 19, 24, 25, 30, 31, 32
 33, 34, 35, 36
*Nset, nset=FrontTopPanel_corners
  1,  7, 43, 49
** Section: panel-Section
*Shell Section, elset=panelFace, material=STEEL_4130_US
0.1, 5
*End Part
**
*Part, name=Panel-Part2
*Node
      1,         -12.,           6.,          6.5
      2,         -12.,           4.,          6.5
      3,         -12.,           2.,          6.5
      4,         -12.,           0.,          6.5
      5,         -12.,          -2.,          6.5
      6,         -12.,          -4.,          6.5
      7,         -12.,          -6.,          6.5
      8,          -8.,           6.,          6.5
      9,          -8.,           4.,          6.5
     10,          -8.,           2.,          6.5
     11,          -8.,           0.,          6.5
     12,          -8.,          -2.,          6.5
     13,          -8.,          -4.,          6.5
     14,          -8.,          -6.,          6.5
     15,          -4.,           6.,          6.5
     16,          -4.,           4.,          6.5
     17,          -4.,           2.,          6.5
     18,          -4.,           0.,          6.5
     19,          -4.,          -2.,          6.5
     20,          -4.,          -4.,          6.5
** ... 113 like lines cut
*Element, type=S8R
 1,   1,   2,   9,   8,  50,  51,  52,  53
 2,   2,   3,  10,   9,  54,  55,  56,  51
 3,   3,   4,  11,  10,  57,  58,  59,  55
 4,   4,   5,  12,  11,  60,  61,  62,  58
 5,   5,   6,  13,  12,  63,  64,  65,  61
 6,   6,   7,  14,  13,  66,  67,  68,  64
 7,   8,   9,  16,  15,  52,  69,  70,  71
 8,   9,  10,  17,  16,  56,  72,  73,  69
 9,  10,  11,  18,  17,  59,  74,  75,  72
10,  11,  12,  19,  18,  62,  76,  77,  74
11,  12,  13,  20,  19,  65,  78,  79,  76
12,  13,  14,  21,  20,  68,  80,  81,  78
13,  15,  16,  23,  22,  70,  82,  83,  84
14,  16,  17,  24,  23,  73,  85,  86,  82
15,  17,  18,  25,  24,  75,  87,  88,  85
16,  18,  19,  26,  25,  77,  89,  90,  87
17,  19,  20,  27,  26,  79,  91,  92,  89
18,  20,  21,  28,  27,  81,  93,  94,  91
19,  22,  23,  30,  29,  83,  95,  96,  97
20,  23,  24,  31,  30,  86,  98,  99,  95
** ... 16 like lines cut
*Nset, nset=panelFace, generate
   1,  133,    1
*Elset, elset=panelFace, generate
  1,  36,   1
*Nset, nset=panelEdges
   1,   2,   3,   4,   5,   6,   7,   8,  14,  15,  21,  22,  28,  29,  35,  36
  42,  43,  44,  45,  46,  47,  48,  49,  50,  53,  54,  57,  60,  63,  66,  67
  71,  80,  84,  93,  97, 106, 110, 119, 122, 123, 125, 127, 129, 131, 132, 133
*Elset, elset=panelEdges
  1,  2,  3,  4,  5,  6,  7, 12, 13, 18, 19, 24, 25, 30, 31, 32
 33, 34, 35, 36
*Nset, nset=FrontBottomPanel_corners
  1,  7, 43, 49
** Section: panel-Section
*Shell Section, elset=panelFace, material=STEEL_4130_US
0.1, 5
*End Part
**
**
** ASSEMBLY
**
*Assembly, name=Assembly
**
*Instance, name=Frame_Instance, part=Frame
*End Instance
**
*Instance, name=panel-Instance1, part=Panel-Part1
*End Instance
**
*Instance, name=panel-Instance2, part=Panel-Part2
*End Instance
**
*Surface, type=NODE, name=Frame_Instance_FrameTop_CNS_, internal
Frame_Instance.FrameTop, 1.
*Surface, type=NODE, name=panel-Instance1_panelEdges_CNS_, internal
panel-Instance1.panelEdges, 1.
*Surface, type=NODE, name=Frame_Instance_FrameBot_CNS_, internal
Frame_Instance.FrameBot, 1.
*Surface, type=NODE, name=panel-Instance2_panelEdges_CNS_, internal
panel-Instance2.panelEdges, 1.
** Constraint: Constraint-1
*Tie, name=Constraint-1, adjust=yes, type=NODE TO SURFACE
panel-Instance1_panelEdges_CNS_, Frame_Instance_FrameTop_CNS_
** Constraint: Constraint-2
*Tie, name=Constraint-2, adjust=yes, type=NODE TO SURFACE
panel-Instance2_panelEdges_CNS_, Frame_Instance_FrameBot_CNS_
*End Assembly
**
** MATERIALS
** ------------------------------------------
**
*Material, name=STEEL_4130_US
*Density
 0.000735,
*Elastic
 2.97e+07, 0.29
** ----------------------------------------------------------------
**
** STEP: Step-Freq
**
*Step, name=Freq, perturbation
*Frequency, eigensolver=Lanczos, acoustic coupling=on, normalization=displacement
20, , , , ,
**
** OUTPUT REQUESTS
**
*Restart, write, frequency=0
**
** FIELD OUTPUT: F-Output-1
**
*Output, field, variable=PRESELECT
*End Step
